
FoamFile
{
    format      ascii;
    version     2.0;
    class       dictionary;
    location    "constant";
    object      physicalProperties;
}

// * * * * * * * * * * * * * * * * * * * * * * * * * * * * * * * * * * * * * //

viscosityModel   constant;

nu      [ 0 2 -1 0 0 0 0 ] 0.2313;

// * * * * * * * * * * * * * * * * * * * * * * * * * * * * * * * * * * * * * //
