
FoamFile
{
    format      ascii;
    version     2.0;
    class       dictionary;
    location    "system";
    object      meshDict;
}

// * * * * * * * * * * * * * * * * * * * * * * * * * * * * * * * * * * * * * //

surfaceFile	"1.fms";

boundaryCellSize	6;
boundaryCellSizeRefinementThickness 0.6000000000000001;
keepCellsIntersectingBoundary	1;
maxCellSize	20;
minCellSize	6;

// * * * * * * * * * * * * * * * * * * * * * * * * * * * * * * * * * * * * * //
