
FoamFile
{
    format      ascii;
    class       volScalarField;
    location    "0";
    object      T;
}

// * * * * * * * * * * * * * * * * * * * * * * * * * * * * * * * * * * * * * //

dimensions      [ 0 0 0 1 0 0 0 ];

internalField   uniform 300;

boundaryField
{



     ".*" 
    {
        type            zeroGradient;
    }  



    interface_test
    {
            type            compressible::turbulentTemperatureCoupledBaffleMixed;
            value           $internalField;
            Tnbr            T;
            
    }

}

// * * * * * * * * * * * * * * * * * * * * * * * * * * * * * * * * * * * * * //
